/*--------------------------------*- C++ -*----------------------------------*\
  =========                 |
  \\      /  F ield         | OpenFOAM: The Open Source CFD Toolbox
   \\    /   O peration     | Website:  https://openfoam.org
    \\  /    A nd           | Version:  8
     \\/     M anipulation  |
\*---------------------------------------------------------------------------*/
FoamFile
{
    version     2.0;
    format      ascii;
    class       dictionary;
    object      blockMeshDict;
}
// * * * * * * * * * * * * * * * * * * * * * * * * * * * * * * * * * * * * * //

convertToMeters 0.00005;

vertices
(
  
    (0 0 1) //      0 vert 0
    (19 0 1) //     1 vert 1
    (19 2 1) //     2 vert 2
    (19 4 1) //     3 vert 2A
    (19 20 1) //    4 vert 3
    (7 20 1) //     5 vert 4 
    (7 4 1) //      6 vert 4A
    (7 2 1) //      7 vert 5 
    (5 2 1) //      8 vert 6
    (5 4 1) //      9 vert 6A
    (5 20 1) //     10 vert 7
    (4 20 1) //     11 vert 8
    (4 4 1) //      12 vert 8A
    (4 2 1) //      13 vert 9
    (2 2 1) //      14 vert 10
    (2 4 1) //      15 vert 11
    (0 4 1) //      16 vert 12
    (0 2 1) //      17 vert 13
    (0 0 0) //      18 vert 14
    (19 0 0) //     19 vert 15
    (19 2 0) //     20 vert 16
    (19 4 0) //     21 vert 16A
    (19 20 0) //    22 vert 17
    (7 20 0) //     23 vert 18
    (7 4 0) //      24 vert 18A
    (7 2 0) //      25 vert 19
    (5 2 0) //      26 vert 20
    (5 4 0) //      27 vert 20A
    (5 20 0) //     28 vert 21
    (4 20 0) //     29 vert 22
    (4 4 0) //      30 vert 22A
    (4 2 0) //      31 vert 23
    (2 2 0) //      32 vert 24
    (2 4 0) //      33 vert 25
    (0 4 0)  //     34 vert 26
    (0 2 0) //      35 vert 27


);

blocks
(
    hex (18 0 1 19 35 17 2 20)      (100 100 10) simpleGrading (1 1 1)
    hex (25 7 2 20 23 5 4 22)       (100 100 10) simpleGrading (1 1 1)
    hex (31 13 8 26 29 11 10 28)    (100 100 10) simpleGrading (1 1 1)
    hex (35 17 14 32 34 16 15 33)   (100 100 10) simpleGrading (1 1 1)
    hex (31 13 8 26 12 9 27 30)     (100 100 10) simpleGrading (1 1 1)
    hex (25 7 2 20 24 6 3 21)       (100 100 10) simpleGrading (1 1 1)
);

edges
(
  
);

boundary
(
    top
    {
        type patch;
        faces
        (
            (4 22 23 5)
            (10 28 29 11)
            (15 33 34 16)
        );
    }
    
    left
    {
        type patch;
        faces
        (
            (0 17 35 18)
            (17 16 34 35)
            
        );
    }
    right
    {
        type patch;
        faces
        (
            (1 2 20 19)
            (2 4 22 20)
        );
    }
    bottom
    {
        type symmetryPlane;
        faces
        (
            (0 18 19 1)
            
        );
    }

    cathode
    {
        type patch;
        faces
        (
            (32 33 15 14)
            //(32 14 13 31)
            (31 13 11 29)
            
        );

    }
    
    anode
    {
        type patch;
        faces
        (
            //(26 8 7 25)
            (25 7 5 23)
            (26 28 10 8)
        );

    }
    
mica
    {
        type patch;
        faces
        (
            (13 8 9 12)
            (31 26 27 30)
        );

    }

);

mergePatchPairs
(
);

// ************************************************************************* //
