/*--------------------------------*- C++ -*----------------------------------*\
  =========                 |
  \\      /  F ield         | OpenFOAM: The Open Source CFD Toolbox
   \\    /   O peration     | Website:  https://openfoam.org
    \\  /    A nd           | Version:  8
     \\/     M anipulation  |
\*---------------------------------------------------------------------------*/
FoamFile
{
    version     2.0;
    format      ascii;
    class       volScalarField;
    object      phi;
}
// * * * * * * * * * * * * * * * * * * * * * * * * * * * * * * * * * * * * * //

dimensions      [1 2 -3 0 0 -1 0];

internalField   uniform 0;

boundaryField
{
    anode
    {
        type            fixedValue;
        value           uniform 0;   
    }
    cathode
    {
        type            fixedValue;
        value           uniform -400;  
    }
    left
    {
        type            fixedValue;
        value           uniform 0;   
    }
    right
    {
        type            fixedValue;
        value           uniform 0;   
    }
    
    top
    {
        type            fixedValue;
        value           uniform 0;   
         
    }
    
    bottom
    {
        type            symmetryPlane;
        
    }
    
   

     

    defaultFaces
    {
        type            empty;
    }
}

// ************************************************************************* //
