/*--------------------------------*- C++ -*----------------------------------*\
  =========                 |
  \\      /  F ield         | OpenFOAM: The Open Source CFD Toolbox
   \\    /   O peration     | Website:  https://openfoam.org
    \\  /    A nd           | Version:  8
     \\/     M anipulation  |
\*---------------------------------------------------------------------------*/
FoamFile
{
    version     2.0;
    format      ascii;
    class       volScalarField;
    object      rho;
}
// * * * * * * * * * * * * * * * * * * * * * * * * * * * * * * * * * * * * * //

dimensions      [0 -3 1 0 0 1 0];

internalField   uniform 0;

boundaryField
{
    cathode
    {
      type            zeroGradient; 
    }
    anode
    {

       type            zeroGradient; 
    }
    
    left
    {
        type            zeroGradient; 
        
    }
    
    right
    {
        type            zeroGradient; 
        
    }
    
    top
    {
         type            zeroGradient; 
        
    }
    bottom
    {
        type            symmetryPlane;
        
    }
    
   /* right
    {
        type            zeroGradient;
        
    }
    
    left
    {
        type            zeroGradient;
        
    }
    */
    
    


    defaultFaces
    {
        type            empty;
    }
}

// ************************************************************************* //
