/*--------------------------------*- C++ -*----------------------------------*\
  =========                 |
  \\      /  F ield         | OpenFOAM: The Open Source CFD Toolbox
   \\    /   O peration     | Website:  https://openfoam.org
    \\  /    A nd           | Version:  8
     \\/     M anipulation  |
\*---------------------------------------------------------------------------*/
FoamFile
{
    version     2.0;
    format      ascii;
    class       volScalarField;
    object      phi;
}
// * * * * * * * * * * * * * * * * * * * * * * * * * * * * * * * * * * * * * //

dimensions      [1 2 -3 0 0 -1 0];

internalField   uniform 0;

boundaryField
{
    left
    {
        type            fixedValue;
        value           uniform 0;
    }

    right
    {
        type            fixedValue;
        value           uniform 0;
    }

    bottom
    {
        type            fixedValue;
        value           uniform 0;
    }

    top
    {
        type            fixedValue;
        value           uniform 0;
    }

    anode
    {
        type            fixedValue;
        value           uniform 0;
    }

    cathode
    {
        type            fixedValue;
        value           uniform -400;
    }

    int_C_top
    {
        type            fixedValue;
        value           uniform 0;
    }





    defaultFaces
    {
        type            empty;
    }
}

// ************************************************************************* //
