/*--------------------------------*- C++ -*----------------------------------*\
  =========                 |
  \\      /  F ield         | OpenFOAM: The Open Source CFD Toolbox
   \\    /   O peration     | Website:  https://openfoam.org
    \\  /    A nd           | Version:  8
     \\/     M anipulation  |
\*---------------------------------------------------------------------------*/
FoamFile
{
    version     2.0;
    format      ascii;
    class       polyBoundaryMesh;
    location    "constant/polyMesh";
    object      boundary;
}
// * * * * * * * * * * * * * * * * * * * * * * * * * * * * * * * * * * * * * //

7
(
    anode
    {
        type            patch;
        nFaces          140;
        startFace       17250;
    }
    cathode
    {
        type            patch;
        nFaces          160;
        startFace       17390;
    }
    bottom
    {
        type            symmetryPlane;
        inGroups        List<word> 1(symmetryPlane);
        nFaces          170;
        startFace       17550;
    }
    left
    {
        type            patch;
        nFaces          40;
        startFace       17720;
    }
    right
    {
        type            patch;
        nFaces          60;
        startFace       17760;
    }
    top
    {
        type            patch;
        nFaces          130;
        startFace       17820;
    }
    defaultFaces
    {
        type            empty;
        inGroups        List<word> 1(empty);
        nFaces          17600;
        startFace       17950;
    }
)

// ************************************************************************* //
